*Heading
** Job name: final_2 Model name: Model-1
** Generated by: Abaqus/CAE 2022
*Preprint, echo=NO, model=NO, history=NO, contact=NO
**
** PARTS
**
*Part, name=Part-1
*Node
      1,  0.104285717, 0.00499999989
      2,  0.101428568, 0.00499999989
      3,  0.095714286, 0.00499999989
      4,  0.109999999, 0.00499999989
      5, 0.0900000036, 0.00499999989
      6, 0.0900000036, 0.0116666667
      7, 0.0900000036, 0.0149999997
      8,  0.095714286, 0.0149999997
      9, 0.0985714272, 0.0149999997
     10,  0.104285717, 0.0149999997
     11,  0.109999999, 0.0149999997
     12,  0.109999999, 0.00833333377
     13,  0.194029853,           0.
     14,  0.188059703,           0.
     15,  0.182089552,           0.
     16,  0.176119402,           0.
     17,  0.170149252,           0.
     18,  0.161194026,           0.
     19,  0.155223876,           0.
     20,  0.149253726,           0.
** ... 3379 like lines cut
*Element, type=CPS4R
   1,  787,  784,  685,  684
   2,  661,  788,  784,    2
   3,  788,  786,  686,   28
   4,  786,  780,   29,  686
   5,   30,  687,  779,  866
   6, 1024, 2779, 1025, 2784
   7,  146, 1141, 1149, 2800
   8, 2920, 1502, 1437, 2878
   9, 3136, 3137, 1865, 1980
  10, 2313, 3235, 2325, 3168
  11, 2197, 2158, 2214, 2545
  12, 2209, 3326,  320, 2178
  13,  382, 2149, 2129, 2087
  14, 3138, 1876, 3086, 1638
  15, 1519, 2980, 1594, 1641
  16, 1224,  477, 1323, 1389
  17,  508, 1107, 1052, 1019
  18,  772,  111,  978,  921
  19,  921,  978, 1019,  538
  20,  111,  771,  922,  978
** ... 3262 like lines cut
*Nset, nset=Set-1, generate
    1,  3399,     1
*Elset, elset=Set-1, generate
    1,  3282,     1
** Section: Section-1
*Solid Section, elset=Set-1, material=Material-1
1.,
*End Part
**  
**
** ASSEMBLY
**
*Assembly, name=Assembly
**  
*Instance, name=Part-1-1, part=Part-1
*End Instance
**  
*Nset, nset=Set-1, instance=Part-1-1
  13,  14,  15,  16,  17,  18,  19,  20,  21,  22,  23,  24,  25,  26,  27,  28
  29,  30,  31,  32,  33,  34,  35,  36,  37,  38,  39,  40,  41,  42,  43,  44
  45, 668, 669, 670, 671, 672, 673, 674, 675, 676, 677, 678, 679, 680, 681, 682
 683, 684, 685, 686, 687, 688, 689, 690, 691, 692, 693, 694, 695, 696, 697, 698
 699, 700, 701, 702
*Elset, elset=Set-1, instance=Part-1-1
    1,    3,    4,    5,   32,  157,  159,  161,  203,  217,  230,  241,  251,  259,  265,  266
  273,  274,  280,  281,  285,  290,  294,  297,  298,  300,  304,  325,  345,  363,  382,  401
  421,  442,  462,  482, 1091, 1096, 1097, 1098, 1107, 1108, 1110, 1166, 1187, 1208, 1209, 1212
 1214, 1216, 1218, 1219, 1222, 1224, 1226, 1227, 1228, 1231, 1234, 1238, 1240, 1242, 1245, 1250
 1271, 1274, 1275
*Nset, nset=Set-inside, instance=Part-1-1
   1,   2,   3,   4,   5,   6,   7,   8,   9,  10,  11,  12, 660, 661, 662, 663
 664, 665, 666, 667
*Elset, elset=Set-inside, instance=Part-1-1
    2,   34,   35,   51,   99,  100,  134,  135,  136,  155,  202,  301,  732, 1092, 1093, 1094
 1109, 1188, 1189, 1388
*End Assembly
*Amplitude, name=Amp-1
             0.,              0.,              1.,              1.
** 
** MATERIALS
** 
*Material, name=Material-1
*Density
1100.,
*Elastic
1., 0.3
** ----------------------------------------------------------------
** 
** STEP: Step-1
** 
*Step, name=Step-1, nlgeom=YES
*Dynamic, Explicit
, 1.
*Bulk Viscosity
0.06, 1.2
** 
** BOUNDARY CONDITIONS
** 
** Name: BC-1 Type: Displacement/Rotation
** Name: BC-2 Type: Displacement/Rotation
*Boundary, amplitude=Amp-1
Set-inside, 1, 1, 220.
*Boundary, amplitude=Amp-1
Set-1, 1, 1, 0
** 
** OUTPUT REQUESTS
** 
*Restart, write, number interval=1, time marks=NO
** 
** FIELD OUTPUT: F-Output-1
** 
*Output, field, variable=PRESELECT
** 
** HISTORY OUTPUT: H-Output-1
** 
*Output, history, variable=PRESELECT
*End Step
