*Heading
** Job name: heat_transfer_final Model name: Model-1
** Generated by: Abaqus/CAE 2022
*Preprint, echo=NO, model=NO, history=NO, contact=NO
**
** PARTS
**
*Part, name=Part-1
*Node
      1, 0.00382683426, 0.00076120469
      2, 0.00707106758, 0.0029289322
      3, 0.00923879538, 0.00617316552
      4, 0.00980785303, 0.0119509036
      5, 0.00831469614, 0.0155557021
      6, 0.00555570237, 0.0183146968
      7, 0.00195090321, 0.0198078528
      8, -0.00195090321, 0.0198078528
      9, -0.00555570237, 0.0183146968
     10, -0.00831469614, 0.0155557021
     11, -0.00980785303, 0.0119509036
     12, -0.00923879538, 0.00617316552
     13, -0.00707106758, 0.0029289322
     14, -0.00382683426, 0.00076120469
     15,           0.,           0.
     16, -0.00596169056, 0.0395532325
     17, -0.0117902067, 0.0382229127
     18, -0.0173553489, 0.0360387564
     19, -0.0225328021, 0.0330495499
     20, -0.0272069089, 0.0293220747
** ... 1533 like lines cut
*Element, type=CPS4R
   1,  679,  743,  555,  656
   2,  119, 1296, 1178, 1414
   3,  119,  781,  655, 1296
   4,  998, 1025,  821,  118
   5,  804,  977,  116, 1385
   6,  730,  115,  757, 1385
   7,  764,  690,  616,  814
   8,  541,  723,  114,  406
   9,  652,  113,  724,  175
  10,  176,  750,  689,  897
  11, 1407,  803,  756,  111
  12,  896, 1496,  761,  807
  13, 1399,  808,  864,  681
  14,  893,  544,  429,  466
  15,  381,  508,  493,   51
  16,  493,  508,  107,  569
  17,   52,  466,  429,  382
  18,  438,  474,  542,  547
  19,  547,  542,  629,  681
  20, 1375,  743,  798,  859
** ... 1454 like lines cut
*Nset, nset=Set-in
   1,   2,   3,   4,   5,   6,   7,   8,   9,  10,  11,  12,  13,  14,  15, 292
 293, 294, 295, 296, 297, 298, 299, 300, 301, 302, 303, 304, 305, 306, 307, 308
*Elset, elset=Set-in
  24,  27,  29,  30,  31,  32,  66,  67,  68,  79,  80,  81,  98, 100, 179, 304
 315, 316, 318, 341, 491, 492, 493, 494, 495, 496, 497, 498, 500, 556, 564, 567
*Nset, nset=Set-out
  16,  17,  18,  19,  20,  21,  22,  23,  24,  25,  26,  27,  28,  29,  30,  31
  32,  33,  34,  35,  36,  37,  38,  39,  40,  41,  42,  43,  44,  45,  46,  47
  48,  49,  50,  51,  52,  53,  54,  55,  56,  57, 309, 310, 311, 312, 313, 314
 315, 316, 317, 318, 319, 320, 321, 322, 323, 324, 325, 326, 327, 328, 329, 330
 331, 332, 333, 334, 335, 336, 337, 338, 339, 340, 341, 342, 343, 344, 345, 346
 347, 348, 349, 350, 351, 352, 353, 354, 355, 356, 357, 358, 359, 360, 361, 362
 363, 364, 365, 366, 367, 368, 369, 370, 371, 372, 373, 374, 375, 376, 377, 378
 379, 380, 381, 382, 383, 384, 385, 386, 387, 388, 389, 390, 391, 392
*Elset, elset=Set-out
   15,   17,   38,   47,   48,   49,   53,   55,   89,   90,  110,  112,  114,  128,  130,  134
  135,  142,  145,  146,  147,  148,  149,  152,  153,  154,  156,  157,  162,  180,  189,  201
  202,  203,  206,  208,  209,  211,  217,  218,  219,  229,  323,  351,  365,  369,  392,  422
  437,  438,  463,  465,  485,  488,  489,  490,  502,  503,  504,  505,  506,  508,  509,  510
  511,  512,  513,  515,  516,  517,  519,  521,  523,  524,  525,  526,  527,  528,  529,  530
  531,  532,  533,  534,  535,  536,  537,  538,  539,  541,  542,  543,  544,  545,  547,  548
  549,  550,  551,  552,  553,  554,  571,  573,  577,  579,  582,  583,  584,  586,  588,  590
  593,  597,  598,  602,  607,  608,  612,  614,  618,  619,  622,  626,  634, 1401
*Nset, nset=Set-4, generate
    1,  1553,     1
*Elset, elset=Set-4, generate
    1,  1474,     1
*Elset, elset=_Surf-out_S4, internal
  15,  17,  48,  53,  90, 110, 128, 130, 134, 135, 145, 147, 148, 149, 152, 156
 162, 201, 208, 211, 217, 323, 351, 365, 369, 463, 489, 490, 503, 504, 506, 508
 515, 521, 525, 526, 527, 528, 529, 530, 531, 533, 534, 535, 538, 541, 543, 547
 552, 553, 554
*Elset, elset=_Surf-out_S2, internal
   38,   47,   49,   55,   89,  112,  114,  142,  146,  153,  154,  157,  180,  189,  202,  203
  206,  209,  218,  219,  229,  392,  422,  437,  438,  465,  485,  488,  502,  505,  509,  510
  512,  513,  516,  517,  519,  523,  524,  532,  536,  537,  539,  542,  544,  545,  548,  549
  550,  551,  571,  573,  577,  579,  582,  583,  584,  586,  588,  590,  593,  598,  602,  607
  608,  612,  614,  618,  619,  622,  626,  634, 1401
*Elset, elset=_Surf-out_S3, internal
 511,
*Elset, elset=_Surf-out_S1, internal
 597,
*Surface, type=ELEMENT, name=Surf-out
_Surf-out_S4, S4
_Surf-out_S2, S2
_Surf-out_S3, S3
_Surf-out_S1, S1
** Section: Section-1
*Solid Section, elset=Set-4, material=Material-1
1.,
*End Part
**  
**
** ASSEMBLY
**
*Assembly, name=Assembly
**  
*Instance, name=Part-1-1, part=Part-1
*End Instance
**  
*Nset, nset=Set-1, instance=Part-1-1
   1,   2,   3,   4,   5,   6,   7,   8,   9,  10,  11,  12,  13,  14,  15, 292
 293, 294, 295, 296, 297, 298, 299, 300, 301, 302, 303, 304, 305, 306, 307, 308
*Elset, elset=Set-1, instance=Part-1-1
  24,  27,  29,  30,  31,  32,  66,  67,  68,  79,  80,  81,  98, 100, 179, 304
 315, 316, 318, 341, 491, 492, 493, 494, 495, 496, 497, 498, 500, 556, 564, 567
*End Assembly
*Amplitude, name=Amp-1
             0.,              0.,              1.,              1.
** 
** MATERIALS
** 
*Material, name=Material-1
*Conductivity
2.,
*Density
1100.,
** ----------------------------------------------------------------
** 
** STEP: Step-1
** 
*Step, name=Step-1, nlgeom=YES
*Dynamic, Explicit
, 1.
*Bulk Viscosity
0.06, 1.2
** 
** BOUNDARY CONDITIONS
** 
** Name: BC-1 Type: Displacement/Rotation
*Boundary, amplitude=Amp-1
Set-1, 1, 1, 140.
** 
** OUTPUT REQUESTS
** 
*Restart, write, number interval=1, time marks=NO
** 
** FIELD OUTPUT: F-Output-1
** 
*Output, field, variable=PRESELECT
** 
** HISTORY OUTPUT: H-Output-1
** 
*Output, history, variable=PRESELECT, frequency=1
*End Step
